<?xml version="1.0" encoding="UTF-8"?>
<configuration xmlns:xsi="http://www.w3.org/2001/XMLSchema-instance" 
               xsi:noNamespaceSchemaLocation="http://sumo.dlr.de/xsd/sumoConfiguration.xsd">
    
    <input>
        <net-file value="network.net.xml"/>
        <route-files value="routes.rou.xml"/>
    </input>
    
    <time>
        <begin value="0"/>
        <end value="3600"/>
        <step-length value="0.1"/>
    </time>
    
    <processing>
        <time-to-teleport value="-1"/>
        <max-depart-delay value="300"/>
    </processing>
    
    <report>
        <verbose value="false"/>
        <no-step-log value="true"/>
    </report>
    
    <gui_only>
        <start value="true"/>
    </gui_only>
    
</configuration>
